@<TRIPOS>MOLECULE
Yingfan_dimer.pdb
31 31 1 0 0
SMALL
AMBER ff14SB


@<TRIPOS>ATOM
      1 N           2.1500    1.0180   -0.4670 n         1 LAA   -0.3110
      2 CD1         3.5600    1.1410   -0.3940 c3        1 LAA    0.0450
      3 CG          3.9000    2.4470    0.2540 c3        1 LAA    0.1214
      4 NB          3.4660    2.5080    1.6880 n3        1 LAA   -0.0605
      5 CA          4.2740    1.7320    2.5870 c3        1 LAA    0.1789
      6 C           3.6720    0.7930    3.5020 c         1 LAA    0.2392
      7 O           4.3580    0.1710    4.3190 o         1 LAA   -0.2754
      8 CE1         4.1560    1.0950   -1.7620 c3        1 LAA   -0.0446
      9 SG          3.0180    3.9800    2.2410 sy        1 LAA   -0.1087
     10 OD1         1.9690    4.4580    1.4480 o         1 LAA   -0.4784
     11 OD2         2.8450    3.8160    3.6450 o         1 LAA   -0.4784
     12 CD2         4.4260    4.9720    2.0560 ca        1 LAA    0.3389
     13 CE2         5.3690    5.0080    3.0140 ca        1 LAA    0.0642
     14 CE3         4.5950    5.7620    0.8900 ca        1 LAA    0.0642
     15 CZ1         6.5360    5.7760    2.8030 ca        1 LAA   -0.0314
     16 CZ2         5.7110    6.5150    0.7180 ca        1 LAA   -0.0314
     17 CH          6.6720    6.4740    1.6650 ca        1 LAA    0.0415
     18 Cl17        8.0950    7.4890    1.4330 cl        1 LAA   -0.0843
     19 HA1         4.9662    1.1614    1.9679 h1        1 LAA    0.0677
     20 HA2         4.8657    2.4303    3.1789 h1        1 LAA    0.0677
     21 H           1.6246    1.7612   -0.9048 hn        1 LAA    0.1498
     22 HD1         3.9639    0.3243    0.2043 h1        1 LAA    0.0522
     23 HG2         4.9799    2.5881    0.2097 h1        1 LAA    0.0594
     24 HG3         3.4148    3.2525   -0.2972 h1        1 LAA    0.0594
     25 HE2         5.2360    4.4568    3.9332 ha        1 LAA    0.0753
     26 HE3         3.8270    5.7643    0.1306 ha        1 LAA    0.0753
     27 HZ1         7.3132    5.8011    3.5524 ha        1 LAA    0.0644
     28 HZ2         5.8278    7.1345   -0.1589 ha        1 LAA    0.0644
     29 HE11        3.9090    0.1444   -2.2347 hc        1 LAA    0.0251
     30 HE12        3.7551    1.9131   -2.3604 hc        1 LAA    0.0251
     31 HE13        5.2391    1.1944   -1.6900 hc        1 LAA    0.0251
@<TRIPOS>BOND
     1    1    2 1
     2    2    3 1
     3    2    8 1
     4    3    4 1
     5    4    5 1
     6    4    9 1
     7    5    6 1
     8    6    7 2
     9    9   10 2
    10    9   11 2
    11    9   12 1
    12   12   13 ar
    13   12   14 ar
    14   13   15 ar
    15   14   16 ar
    16   15   17 ar
    17   16   17 ar
    18   17   18 1
    19   19    5 1
    20   20    5 1
    21   21    1 1
    22   22    2 1
    23   23    3 1
    24   24    3 1
    25   25   13 1
    26   26   14 1
    27   27   15 1
    28   28   16 1
    29   29    8 1
    30   30    8 1
    31   31    8 1
@<TRIPOS>SUBSTRUCTURE
     1 LAA     5 RESIDUE           4 A     LAA     0 ROOT
